
---------- Begin Simulation Statistics ----------
simSeconds                                  16.174007                       # Number of seconds simulated (Second)
simTicks                                 16174006653000                       # Number of ticks simulated (Tick)
finalTick                                16174006653000                       # Number of ticks from beginning of simulation (restored from checkpoints and never reset) (Tick)
simFreq                                  1000000000000                       # The number of ticks per simulated second ((Tick/Second))
hostSeconds                                     55.03                       # Real time elapsed on the host (Second)
hostTickRate                             293893434310                       # The number of ticks simulated per host second (ticks/s) ((Tick/Second))
hostMemory                                   29280480                       # Number of bytes of host memory used (Byte)
system.clk_domain.clock                          1000                       # Clock period in ticks (Tick)
system.cpu0.numCycles                     84927462485                       # Number of cpu cycles simulated (Cycle)
system.cpu0.cpi                                   inf                       # CPI: cycles per instruction (core level) ((Cycle/Count))
system.cpu0.ipc                              0.000000                       # IPC: instructions per cycle (core level) ((Count/Cycle))
system.cpu0.numWorkItemsStarted                     0                       # Number of work items this cpu started (Count)
system.cpu0.numWorkItemsCompleted                   0                       # Number of work items this cpu completed (Count)
system.cpu0.numVMExits                        3055100                       # total number of KVM exits (Count)
system.cpu0.numVMHalfEntries                     1039                       # number of KVM entries to finalize pending operations (Count)
system.cpu0.numExitSignal                     2498545                       # exits due to signal delivery (Count)
system.cpu0.numMMIO                             68350                       # number of VM exits due to memory mapped IO (Count)
system.cpu0.numCoalescedMMIO                        0                       # number of coalesced memory mapped IO requests (Count)
system.cpu0.numIO                              473705                       # number of VM exits due to legacy IO (Count)
system.cpu0.numHalt                                54                       # number of VM exits due to wait for interrupt instructions (Count)
system.cpu0.numInterrupts                       16397                       # number of interrupts delivered (Count)
system.cpu0.numHypercalls                           0                       # number of hypercalls (Count)
system.cpu0.commitStats0.numOps                     0                       # Number of ops (including micro ops) committed (thread level) (Count)
system.cpu0.commitStats0.numInstsNotNOP             0                       # Number of instructions committed excluding NOPs or prefetches (Count)
system.cpu0.commitStats0.numOpsNotNOP               0                       # Number of Ops (including micro ops) Simulated (Count)
system.cpu0.commitStats0.cpi                      inf                       # CPI: cycles per instruction (thread level) ((Cycle/Count))
system.cpu0.commitStats0.ipc                 0.000000                       # IPC: instructions per cycle (thread level) ((Count/Cycle))
system.cpu0.commitStats0.numMemRefs                 0                       # Number of memory references committed (Count)
system.cpu0.commitStats0.numFpInsts                 0                       # Number of float instructions (Count)
system.cpu0.commitStats0.numIntInsts                0                       # Number of integer instructions (Count)
system.cpu0.commitStats0.numLoadInsts               0                       # Number of load instructions (Count)
system.cpu0.commitStats0.numStoreInsts              0                       # Number of store instructions (Count)
system.cpu0.commitStats0.numVecInsts                0                       # Number of vector instructions (Count)
system.cpu0.commitStats0.committedInstType::No_OpClass            0                       # Class of committed instruction. (Count)
system.cpu0.commitStats0.committedInstType::IntAlu            0                       # Class of committed instruction. (Count)
system.cpu0.commitStats0.committedInstType::IntMult            0                       # Class of committed instruction. (Count)
system.cpu0.commitStats0.committedInstType::IntDiv            0                       # Class of committed instruction. (Count)
system.cpu0.commitStats0.committedInstType::FloatAdd            0                       # Class of committed instruction. (Count)
system.cpu0.commitStats0.committedInstType::FloatCmp            0                       # Class of committed instruction. (Count)
system.cpu0.commitStats0.committedInstType::FloatCvt            0                       # Class of committed instruction. (Count)
system.cpu0.commitStats0.committedInstType::FloatMult            0                       # Class of committed instruction. (Count)
system.cpu0.commitStats0.committedInstType::FloatMultAcc            0                       # Class of committed instruction. (Count)
system.cpu0.commitStats0.committedInstType::FloatDiv            0                       # Class of committed instruction. (Count)
system.cpu0.commitStats0.committedInstType::FloatMisc            0                       # Class of committed instruction. (Count)
system.cpu0.commitStats0.committedInstType::FloatSqrt            0                       # Class of committed instruction. (Count)
system.cpu0.commitStats0.committedInstType::SimdAdd            0                       # Class of committed instruction. (Count)
system.cpu0.commitStats0.committedInstType::SimdAddAcc            0                       # Class of committed instruction. (Count)
system.cpu0.commitStats0.committedInstType::SimdAlu            0                       # Class of committed instruction. (Count)
system.cpu0.commitStats0.committedInstType::SimdCmp            0                       # Class of committed instruction. (Count)
system.cpu0.commitStats0.committedInstType::SimdCvt            0                       # Class of committed instruction. (Count)
system.cpu0.commitStats0.committedInstType::SimdMisc            0                       # Class of committed instruction. (Count)
system.cpu0.commitStats0.committedInstType::SimdMult            0                       # Class of committed instruction. (Count)
system.cpu0.commitStats0.committedInstType::SimdMultAcc            0                       # Class of committed instruction. (Count)
system.cpu0.commitStats0.committedInstType::SimdMatMultAcc            0                       # Class of committed instruction. (Count)
system.cpu0.commitStats0.committedInstType::SimdShift            0                       # Class of committed instruction. (Count)
system.cpu0.commitStats0.committedInstType::SimdShiftAcc            0                       # Class of committed instruction. (Count)
system.cpu0.commitStats0.committedInstType::SimdDiv            0                       # Class of committed instruction. (Count)
system.cpu0.commitStats0.committedInstType::SimdSqrt            0                       # Class of committed instruction. (Count)
system.cpu0.commitStats0.committedInstType::SimdFloatAdd            0                       # Class of committed instruction. (Count)
system.cpu0.commitStats0.committedInstType::SimdFloatAlu            0                       # Class of committed instruction. (Count)
system.cpu0.commitStats0.committedInstType::SimdFloatCmp            0                       # Class of committed instruction. (Count)
system.cpu0.commitStats0.committedInstType::SimdFloatCvt            0                       # Class of committed instruction. (Count)
system.cpu0.commitStats0.committedInstType::SimdFloatDiv            0                       # Class of committed instruction. (Count)
system.cpu0.commitStats0.committedInstType::SimdFloatMisc            0                       # Class of committed instruction. (Count)
system.cpu0.commitStats0.committedInstType::SimdFloatMult            0                       # Class of committed instruction. (Count)
system.cpu0.commitStats0.committedInstType::SimdFloatMultAcc            0                       # Class of committed instruction. (Count)
system.cpu0.commitStats0.committedInstType::SimdFloatMatMultAcc            0                       # Class of committed instruction. (Count)
system.cpu0.commitStats0.committedInstType::SimdFloatSqrt            0                       # Class of committed instruction. (Count)
system.cpu0.commitStats0.committedInstType::SimdReduceAdd            0                       # Class of committed instruction. (Count)
system.cpu0.commitStats0.committedInstType::SimdReduceAlu            0                       # Class of committed instruction. (Count)
system.cpu0.commitStats0.committedInstType::SimdReduceCmp            0                       # Class of committed instruction. (Count)
system.cpu0.commitStats0.committedInstType::SimdFloatReduceAdd            0                       # Class of committed instruction. (Count)
system.cpu0.commitStats0.committedInstType::SimdFloatReduceCmp            0                       # Class of committed instruction. (Count)
system.cpu0.commitStats0.committedInstType::SimdAes            0                       # Class of committed instruction. (Count)
system.cpu0.commitStats0.committedInstType::SimdAesMix            0                       # Class of committed instruction. (Count)
system.cpu0.commitStats0.committedInstType::SimdSha1Hash            0                       # Class of committed instruction. (Count)
system.cpu0.commitStats0.committedInstType::SimdSha1Hash2            0                       # Class of committed instruction. (Count)
system.cpu0.commitStats0.committedInstType::SimdSha256Hash            0                       # Class of committed instruction. (Count)
system.cpu0.commitStats0.committedInstType::SimdSha256Hash2            0                       # Class of committed instruction. (Count)
system.cpu0.commitStats0.committedInstType::SimdShaSigma2            0                       # Class of committed instruction. (Count)
system.cpu0.commitStats0.committedInstType::SimdShaSigma3            0                       # Class of committed instruction. (Count)
system.cpu0.commitStats0.committedInstType::SimdPredAlu            0                       # Class of committed instruction. (Count)
system.cpu0.commitStats0.committedInstType::Matrix            0                       # Class of committed instruction. (Count)
system.cpu0.commitStats0.committedInstType::MatrixMov            0                       # Class of committed instruction. (Count)
system.cpu0.commitStats0.committedInstType::MatrixOP            0                       # Class of committed instruction. (Count)
system.cpu0.commitStats0.committedInstType::MemRead            0                       # Class of committed instruction. (Count)
system.cpu0.commitStats0.committedInstType::MemWrite            0                       # Class of committed instruction. (Count)
system.cpu0.commitStats0.committedInstType::FloatMemRead            0                       # Class of committed instruction. (Count)
system.cpu0.commitStats0.committedInstType::FloatMemWrite            0                       # Class of committed instruction. (Count)
system.cpu0.commitStats0.committedInstType::IprAccess            0                       # Class of committed instruction. (Count)
system.cpu0.commitStats0.committedInstType::InstPrefetch            0                       # Class of committed instruction. (Count)
system.cpu0.commitStats0.committedInstType::SimdUnitStrideLoad            0                       # Class of committed instruction. (Count)
system.cpu0.commitStats0.committedInstType::SimdUnitStrideStore            0                       # Class of committed instruction. (Count)
system.cpu0.commitStats0.committedInstType::SimdUnitStrideMaskLoad            0                       # Class of committed instruction. (Count)
system.cpu0.commitStats0.committedInstType::SimdUnitStrideMaskStore            0                       # Class of committed instruction. (Count)
system.cpu0.commitStats0.committedInstType::SimdStridedLoad            0                       # Class of committed instruction. (Count)
system.cpu0.commitStats0.committedInstType::SimdStridedStore            0                       # Class of committed instruction. (Count)
system.cpu0.commitStats0.committedInstType::SimdIndexedLoad            0                       # Class of committed instruction. (Count)
system.cpu0.commitStats0.committedInstType::SimdIndexedStore            0                       # Class of committed instruction. (Count)
system.cpu0.commitStats0.committedInstType::SimdWholeRegisterLoad            0                       # Class of committed instruction. (Count)
system.cpu0.commitStats0.committedInstType::SimdWholeRegisterStore            0                       # Class of committed instruction. (Count)
system.cpu0.commitStats0.committedInstType::SimdUnitStrideFaultOnlyFirstLoad            0                       # Class of committed instruction. (Count)
system.cpu0.commitStats0.committedInstType::SimdUnitStrideSegmentedLoad            0                       # Class of committed instruction. (Count)
system.cpu0.commitStats0.committedInstType::SimdUnitStrideSegmentedStore            0                       # Class of committed instruction. (Count)
system.cpu0.commitStats0.committedInstType::SimdExt            0                       # Class of committed instruction. (Count)
system.cpu0.commitStats0.committedInstType::SimdFloatExt            0                       # Class of committed instruction. (Count)
system.cpu0.commitStats0.committedInstType::SimdConfig            0                       # Class of committed instruction. (Count)
system.cpu0.commitStats0.committedInstType::total            0                       # Class of committed instruction. (Count)
system.cpu0.executeStats0.numInsts                  0                       # Number of executed instructions (Count)
system.cpu0.executeStats0.numNop                    0                       # Number of nop insts executed (Count)
system.cpu0.executeStats0.numBranches               0                       # Number of branches executed (Count)
system.cpu0.executeStats0.numLoadInsts              0                       # Number of load instructions executed (Count)
system.cpu0.executeStats0.numStoreInsts             0                       # Number of stores executed (Count)
system.cpu0.executeStats0.instRate                  0                       # Inst execution rate ((Count/Cycle))
system.cpu0.executeStats0.numFpRegWrites            0                       # Number of times the floating registers were written (Count)
system.cpu0.executeStats0.numMemRefs                0                       # Number of memory refs (Count)
system.cpu0.executeStats0.numVecAluAccesses            0                       # Number of vector alu accesses (Count)
system.cpu0.executeStats0.numDiscardedOps            0                       # Number of ops (including micro ops) which were discarded before commit (Count)
system.cpu0.fetchStats0.numInsts                    0                       # Number of instructions fetched (thread level) (Count)
system.cpu0.fetchStats0.numOps                      0                       # Number of ops (including micro ops) fetched (thread level) (Count)
system.cpu0.fetchStats0.fetchRate                   0                       # Number of inst fetches per cycle ((Count/Cycle))
system.cpu0.fetchStats0.branchRate                  0                       # Number of branch fetches per cycle (Ratio)
system.cpu0.fetchStats0.numFetchSuspends            0                       # Number of times Execute suspended instruction fetching (Count)
system.cpu0.interrupts.clk_domain.clock          8000                       # Clock period in ticks (Tick)
system.cpu0.mmu.dtb.rdAccesses                      0                       # TLB accesses on read requests (Count)
system.cpu0.mmu.dtb.wrAccesses                      0                       # TLB accesses on write requests (Count)
system.cpu0.mmu.dtb.rdMisses                        0                       # TLB misses on read requests (Count)
system.cpu0.mmu.dtb.wrMisses                        0                       # TLB misses on write requests (Count)
system.cpu0.mmu.dtb.walker.power_state.pwrStateResidencyTicks::UNDEFINED 16174006653000                       # Cumulative time (in ticks) in various power states (Tick)
system.cpu0.mmu.itb.rdAccesses                      0                       # TLB accesses on read requests (Count)
system.cpu0.mmu.itb.wrAccesses                      0                       # TLB accesses on write requests (Count)
system.cpu0.mmu.itb.rdMisses                        0                       # TLB misses on read requests (Count)
system.cpu0.mmu.itb.wrMisses                        0                       # TLB misses on write requests (Count)
system.cpu0.mmu.itb.walker.power_state.pwrStateResidencyTicks::UNDEFINED 16174006653000                       # Cumulative time (in ticks) in various power states (Tick)
system.cpu0.power_state.pwrStateResidencyTicks::ON 16174006653000                       # Cumulative time (in ticks) in various power states (Tick)
system.cpu0.thread_0.numInsts                       0                       # Number of Instructions committed (Count)
system.cpu0.thread_0.numOps                         0                       # Number of Ops committed (Count)
system.cpu0.thread_0.numMemRefs                     0                       # Number of Memory References (Count)
system.cpu1.allLatencyDist::bucket_size         10000                       # delay distribution for all (Unspecified)
system.cpu1.allLatencyDist::min_bucket              0                       # delay distribution for all (Unspecified)
system.cpu1.allLatencyDist::max_bucket        1599999                       # delay distribution for all (Unspecified)
system.cpu1.allLatencyDist::samples             18532                       # delay distribution for all (Unspecified)
system.cpu1.allLatencyDist::mean         1665447.604144                       # delay distribution for all (Unspecified)
system.cpu1.allLatencyDist::stdev        1224355.544604                       # delay distribution for all (Unspecified)
system.cpu1.allLatencyDist::underflows              0      0.00%      0.00% # delay distribution for all (Unspecified)
system.cpu1.allLatencyDist               |           0      0.00%      0.00% |           0      0.00%      0.00% |           0      0.00%      0.00% |           0      0.00%      0.00% |           0      0.00%      0.00% |           0      0.00%      0.00% |           0      0.00%      0.00% |           0      0.00%      0.00% |           0      0.00%      0.00% |           0      0.00%      0.00% |           0      0.00%      0.00% |           0      0.00%      0.00% |           0      0.00%      0.00% |           1      0.01%      0.01% |           0      0.00%      0.01% |           1      0.01%      0.01% |           0      0.00%      0.01% |           1      0.01%      0.02% |           0      0.00%      0.02% |           0      0.00%      0.02% |           0      0.00%      0.02% |           0      0.00%      0.02% |          97      0.52%      0.54% |          81      0.44%      0.98% |          30      0.16%      1.14% |          12      0.06%      1.20% |         240      1.30%      2.50% |          28      0.15%      2.65% |          20      0.11%      2.76% |        1570      8.47%     11.23% |         223      1.20%     12.43% |         203      1.10%     13.53% |         908      4.90%     18.43% |         620      3.35%     21.77% |         242      1.31%     23.08% |         216      1.17%     24.24% |         540      2.91%     27.16% |         179      0.97%     28.12% |         123      0.66%     28.79% |         157      0.85%     29.64% |         371      2.00%     31.64% |         118      0.64%     32.27% |          94      0.51%     32.78% |          87      0.47%     33.25% |          82      0.44%     33.69% |          65      0.35%     34.04% |          59      0.32%     34.36% |          90      0.49%     34.85% |          38      0.21%     35.05% |          27      0.15%     35.20% |          26      0.14%     35.34% |          30      0.16%     35.50% |          31      0.17%     35.67% |          23      0.12%     35.79% |          18      0.10%     35.89% |          16      0.09%     35.98% |          19      0.10%     36.08% |          10      0.05%     36.13% |          15      0.08%     36.21% |          11      0.06%     36.27% |          28      0.15%     36.42% |          48      0.26%     36.68% |          15      0.08%     36.76% |           4      0.02%     36.79% |           7      0.04%     36.82% |          22      0.12%     36.94% |           6      0.03%     36.97% |           7      0.04%     37.01% |           9      0.05%     37.06% |           6      0.03%     37.09% |          18      0.10%     37.19% |          22      0.12%     37.31% |           9      0.05%     37.36% |          10      0.05%     37.41% |          10      0.05%     37.46% |           9      0.05%     37.51% |           7      0.04%     37.55% |          13      0.07%     37.62% |           8      0.04%     37.66% |          12      0.06%     37.73% |           8      0.04%     37.77% |           6      0.03%     37.80% |           4      0.02%     37.83% |           4      0.02%     37.85% |           4      0.02%     37.87% |           6      0.03%     37.90% |          10      0.05%     37.96% |           1      0.01%     37.96% |           3      0.02%     37.98% |           1      0.01%     37.98% |           7      0.04%     38.02% |           4      0.02%     38.04% |           2      0.01%     38.05% |           7      0.04%     38.09% |           2      0.01%     38.10% |           4      0.02%     38.12% |           5      0.03%     38.15% |           4      0.02%     38.17% |           2      0.01%     38.18% |           2      0.01%     38.19% |           9      0.05%     38.24% |           8      0.04%     38.29% |           4      0.02%     38.31% |           5      0.03%     38.33% |           0      0.00%     38.33% |           2      0.01%     38.34% |           1      0.01%     38.35% |           6      0.03%     38.38% |           1      0.01%     38.39% |           4      0.02%     38.41% |           3      0.02%     38.43% |           1      0.01%     38.43% |          10      0.05%     38.48% |           6      0.03%     38.52% |          11      0.06%     38.58% |           3      0.02%     38.59% |           0      0.00%     38.59% |           0      0.00%     38.59% |          11      0.06%     38.65% |           8      0.04%     38.70% |           4      0.02%     38.72% |           4      0.02%     38.74% |           1      0.01%     38.74% |           8      0.04%     38.79% |           3      0.02%     38.80% |           6      0.03%     38.84% |           9      0.05%     38.88% |           1      0.01%     38.89% |           2      0.01%     38.90% |           7      0.04%     38.94% |           4      0.02%     38.96% |           6      0.03%     38.99% |           5      0.03%     39.02% |          18      0.10%     39.12% |          25      0.13%     39.25% |          26      0.14%     39.39% |          52      0.28%     39.67% |          35      0.19%     39.86% |          37      0.20%     40.06% |          85      0.46%     40.52% |          52      0.28%     40.80% |          65      0.35%     41.15% |          90      0.49%     41.64% |          46      0.25%     41.88% |          65      0.35%     42.24% |          65      0.35%     42.59% |          34      0.18%     42.77% |          55      0.30%     43.07% |          28      0.15%     43.22% |          28      0.15%     43.37% |          15      0.08%     43.45% |         104      0.56%     44.01% |          53      0.29%     44.30% |          68      0.37%     44.66% |          29      0.16%     44.82% |          59      0.32%     45.14% |          51      0.28%     45.41% |         213      1.15%     46.56% |         125      0.67%     47.24% |          60      0.32%     47.56% # delay distribution for all (Unspecified)
system.cpu1.allLatencyDist::overflows            9718     52.44%    100.00% # delay distribution for all (Unspecified)
system.cpu1.allLatencyDist::min_value          139000                       # delay distribution for all (Unspecified)
system.cpu1.allLatencyDist::max_value         9833000                       # delay distribution for all (Unspecified)
system.cpu1.allLatencyDist::total               18532                       # delay distribution for all (Unspecified)
system.cpu1.loadLatencyDist::bucket_size        10000                       # delay distribution for loads (Unspecified)
system.cpu1.loadLatencyDist::min_bucket             0                       # delay distribution for loads (Unspecified)
system.cpu1.loadLatencyDist::max_bucket       1599999                       # delay distribution for loads (Unspecified)
system.cpu1.loadLatencyDist::samples             9268                       # delay distribution for loads (Unspecified)
system.cpu1.loadLatencyDist::mean        2394088.260682                       # delay distribution for loads (Unspecified)
system.cpu1.loadLatencyDist::stdev       1074037.710784                       # delay distribution for loads (Unspecified)
system.cpu1.loadLatencyDist::underflows             0      0.00%      0.00% # delay distribution for loads (Unspecified)
system.cpu1.loadLatencyDist              |           0      0.00%      0.00% |           0      0.00%      0.00% |           0      0.00%      0.00% |           0      0.00%      0.00% |           0      0.00%      0.00% |           0      0.00%      0.00% |           0      0.00%      0.00% |           0      0.00%      0.00% |           0      0.00%      0.00% |           0      0.00%      0.00% |           0      0.00%      0.00% |           0      0.00%      0.00% |           0      0.00%      0.00% |           1      0.01%      0.01% |           0      0.00%      0.01% |           1      0.01%      0.02% |           0      0.00%      0.02% |           1      0.01%      0.03% |           0      0.00%      0.03% |           0      0.00%      0.03% |           0      0.00%      0.03% |           0      0.00%      0.03% |          97      1.05%      1.08% |          81      0.87%      1.95% |          30      0.32%      2.28% |           8      0.09%      2.36% |           8      0.09%      2.45% |          21      0.23%      2.68% |          19      0.21%      2.88% |          13      0.14%      3.02% |          20      0.22%      3.24% |          87      0.94%      4.18% |          18      0.19%      4.37% |           5      0.05%      4.42% |          15      0.16%      4.59% |          88      0.95%      5.54% |           8      0.09%      5.62% |          22      0.24%      5.86% |          20      0.22%      6.07% |          23      0.25%      6.32% |          10      0.11%      6.43% |          15      0.16%      6.59% |          15      0.16%      6.75% |          13      0.14%      6.89% |           6      0.06%      6.96% |           8      0.09%      7.05% |          13      0.14%      7.19% |          49      0.53%      7.71% |          11      0.12%      7.83% |           7      0.08%      7.91% |           7      0.08%      7.98% |           8      0.09%      8.07% |          16      0.17%      8.24% |          19      0.21%      8.45% |           6      0.06%      8.51% |           8      0.09%      8.60% |          10      0.11%      8.71% |           6      0.06%      8.77% |           8      0.09%      8.86% |          10      0.11%      8.97% |          21      0.23%      9.19% |          47      0.51%      9.70% |          13      0.14%      9.84% |           4      0.04%      9.88% |           6      0.06%      9.95% |          21      0.23%     10.17% |           4      0.04%     10.22% |           5      0.05%     10.27% |           5      0.05%     10.33% |           4      0.04%     10.37% |          15      0.16%     10.53% |          22      0.24%     10.77% |           7      0.08%     10.84% |           6      0.06%     10.91% |           6      0.06%     10.97% |           7      0.08%     11.05% |           3      0.03%     11.08% |           7      0.08%     11.16% |           5      0.05%     11.21% |           4      0.04%     11.25% |           6      0.06%     11.32% |           4      0.04%     11.36% |           1      0.01%     11.37% |           3      0.03%     11.40% |           2      0.02%     11.43% |           5      0.05%     11.48% |           9      0.10%     11.58% |           0      0.00%     11.58% |           1      0.01%     11.59% |           1      0.01%     11.60% |           7      0.08%     11.67% |           1      0.01%     11.69% |           1      0.01%     11.70% |           6      0.06%     11.76% |           1      0.01%     11.77% |           0      0.00%     11.77% |           3      0.03%     11.80% |           3      0.03%     11.84% |           1      0.01%     11.85% |           0      0.00%     11.85% |           7      0.08%     11.92% |           4      0.04%     11.97% |           3      0.03%     12.00% |           3      0.03%     12.03% |           0      0.00%     12.03% |           1      0.01%     12.04% |           1      0.01%     12.05% |           5      0.05%     12.11% |           1      0.01%     12.12% |           1      0.01%     12.13% |           1      0.01%     12.14% |           1      0.01%     12.15% |           7      0.08%     12.22% |           0      0.00%     12.22% |           5      0.05%     12.28% |           1      0.01%     12.29% |           0      0.00%     12.29% |           0      0.00%     12.29% |           5      0.05%     12.34% |           4      0.04%     12.39% |           3      0.03%     12.42% |           3      0.03%     12.45% |           1      0.01%     12.46% |           5      0.05%     12.52% |           2      0.02%     12.54% |           4      0.04%     12.58% |           6      0.06%     12.65% |           1      0.01%     12.66% |           2      0.02%     12.68% |           2      0.02%     12.70% |           1      0.01%     12.71% |           5      0.05%     12.76% |           4      0.04%     12.81% |          17      0.18%     12.99% |          20      0.22%     13.21% |          14      0.15%     13.36% |          37      0.40%     13.76% |          31      0.33%     14.09% |          26      0.28%     14.37% |          75      0.81%     15.18% |          48      0.52%     15.70% |          64      0.69%     16.39% |          86      0.93%     17.32% |          43      0.46%     17.78% |          65      0.70%     18.48% |          64      0.69%     19.17% |          32      0.35%     19.52% |          51      0.55%     20.07% |          26      0.28%     20.35% |          26      0.28%     20.63% |          10      0.11%     20.74% |          19      0.21%     20.94% |           8      0.09%     21.03% |          33      0.36%     21.39% |          23      0.25%     21.63% |          50      0.54%     22.17% |          16      0.17%     22.35% |          36      0.39%     22.73% |          32      0.35%     23.08% |          12      0.13%     23.21% # delay distribution for loads (Unspecified)
system.cpu1.loadLatencyDist::overflows           7117     76.79%    100.00% # delay distribution for loads (Unspecified)
system.cpu1.loadLatencyDist::min_value         139000                       # delay distribution for loads (Unspecified)
system.cpu1.loadLatencyDist::max_value        9833000                       # delay distribution for loads (Unspecified)
system.cpu1.loadLatencyDist::total               9268                       # delay distribution for loads (Unspecified)
system.cpu1.storeLatencyDist::bucket_size        10000                       # delay distribution for stores (Unspecified)
system.cpu1.storeLatencyDist::min_bucket            0                       # delay distribution for stores (Unspecified)
system.cpu1.storeLatencyDist::max_bucket      1599999                       # delay distribution for stores (Unspecified)
system.cpu1.storeLatencyDist::samples            9264                       # delay distribution for stores (Unspecified)
system.cpu1.storeLatencyDist::mean       936492.335924                       # delay distribution for stores (Unspecified)
system.cpu1.storeLatencyDist::stdev      884426.414972                       # delay distribution for stores (Unspecified)
system.cpu1.storeLatencyDist::underflows            0      0.00%      0.00% # delay distribution for stores (Unspecified)
system.cpu1.storeLatencyDist             |           0      0.00%      0.00% |           0      0.00%      0.00% |           0      0.00%      0.00% |           0      0.00%      0.00% |           0      0.00%      0.00% |           0      0.00%      0.00% |           0      0.00%      0.00% |           0      0.00%      0.00% |           0      0.00%      0.00% |           0      0.00%      0.00% |           0      0.00%      0.00% |           0      0.00%      0.00% |           0      0.00%      0.00% |           0      0.00%      0.00% |           0      0.00%      0.00% |           0      0.00%      0.00% |           0      0.00%      0.00% |           0      0.00%      0.00% |           0      0.00%      0.00% |           0      0.00%      0.00% |           0      0.00%      0.00% |           0      0.00%      0.00% |           0      0.00%      0.00% |           0      0.00%      0.00% |           0      0.00%      0.00% |           4      0.04%      0.04% |         232      2.50%      2.55% |           7      0.08%      2.62% |           1      0.01%      2.63% |        1557     16.81%     19.44% |         203      2.19%     21.63% |         116      1.25%     22.88% |         890      9.61%     32.49% |         615      6.64%     39.13% |         227      2.45%     41.58% |         128      1.38%     42.96% |         532      5.74%     48.70% |         157      1.69%     50.40% |         103      1.11%     51.51% |         134      1.45%     52.96% |         361      3.90%     56.85% |         103      1.11%     57.97% |          79      0.85%     58.82% |          74      0.80%     59.62% |          76      0.82%     60.44% |          57      0.62%     61.05% |          46      0.50%     61.55% |          41      0.44%     61.99% |          27      0.29%     62.28% |          20      0.22%     62.50% |          19      0.21%     62.71% |          22      0.24%     62.94% |          15      0.16%     63.10% |           4      0.04%     63.15% |          12      0.13%     63.28% |           8      0.09%     63.36% |           9      0.10%     63.46% |           4      0.04%     63.50% |           7      0.08%     63.58% |           1      0.01%     63.59% |           7      0.08%     63.67% |           1      0.01%     63.68% |           2      0.02%     63.70% |           0      0.00%     63.70% |           1      0.01%     63.71% |           1      0.01%     63.72% |           2      0.02%     63.74% |           2      0.02%     63.76% |           4      0.04%     63.81% |           2      0.02%     63.83% |           3      0.03%     63.86% |           0      0.00%     63.86% |           2      0.02%     63.88% |           4      0.04%     63.92% |           4      0.04%     63.97% |           2      0.02%     63.99% |           4      0.04%     64.03% |           6      0.06%     64.10% |           3      0.03%     64.13% |           8      0.09%     64.22% |           2      0.02%     64.24% |           2      0.02%     64.26% |           3      0.03%     64.29% |           1      0.01%     64.30% |           2      0.02%     64.32% |           1      0.01%     64.34% |           1      0.01%     64.35% |           1      0.01%     64.36% |           2      0.02%     64.38% |           0      0.00%     64.38% |           0      0.00%     64.38% |           3      0.03%     64.41% |           1      0.01%     64.42% |           1      0.01%     64.43% |           1      0.01%     64.44% |           4      0.04%     64.49% |           2      0.02%     64.51% |           1      0.01%     64.52% |           1      0.01%     64.53% |           2      0.02%     64.55% |           2      0.02%     64.57% |           4      0.04%     64.62% |           1      0.01%     64.63% |           2      0.02%     64.65% |           0      0.00%     64.65% |           1      0.01%     64.66% |           0      0.00%     64.66% |           1      0.01%     64.67% |           0      0.00%     64.67% |           3      0.03%     64.70% |           2      0.02%     64.72% |           0      0.00%     64.72% |           3      0.03%     64.76% |           6      0.06%     64.82% |           6      0.06%     64.89% |           2      0.02%     64.91% |           0      0.00%     64.91% |           0      0.00%     64.91% |           6      0.06%     64.97% |           4      0.04%     65.02% |           1      0.01%     65.03% |           1      0.01%     65.04% |           0      0.00%     65.04% |           3      0.03%     65.07% |           1      0.01%     65.08% |           2      0.02%     65.10% |           3      0.03%     65.13% |           0      0.00%     65.13% |           0      0.00%     65.13% |           5      0.05%     65.19% |           3      0.03%     65.22% |           1      0.01%     65.23% |           1      0.01%     65.24% |           1      0.01%     65.25% |           5      0.05%     65.31% |          12      0.13%     65.44% |          15      0.16%     65.60% |           4      0.04%     65.64% |          11      0.12%     65.76% |          10      0.11%     65.87% |           4      0.04%     65.91% |           1      0.01%     65.92% |           4      0.04%     65.97% |           3      0.03%     66.00% |           0      0.00%     66.00% |           1      0.01%     66.01% |           2      0.02%     66.03% |           4      0.04%     66.07% |           2      0.02%     66.09% |           2      0.02%     66.12% |           5      0.05%     66.17% |          85      0.92%     67.09% |          45      0.49%     67.57% |          35      0.38%     67.95% |           6      0.06%     68.02% |           9      0.10%     68.11% |          35      0.38%     68.49% |         177      1.91%     70.40% |          93      1.00%     71.41% |          48      0.52%     71.92% # delay distribution for stores (Unspecified)
system.cpu1.storeLatencyDist::overflows          2601     28.08%    100.00% # delay distribution for stores (Unspecified)
system.cpu1.storeLatencyDist::min_value        257000                       # delay distribution for stores (Unspecified)
system.cpu1.storeLatencyDist::max_value       7604000                       # delay distribution for stores (Unspecified)
system.cpu1.storeLatencyDist::total              9264                       # delay distribution for stores (Unspecified)
system.cpu1.initToCoalesceLatency::bucket_size        10000                       # Ticks from vmem inst initiateAcc to coalescer issue (Unspecified)
system.cpu1.initToCoalesceLatency::min_bucket            0                       # Ticks from vmem inst initiateAcc to coalescer issue (Unspecified)
system.cpu1.initToCoalesceLatency::max_bucket      1599999                       # Ticks from vmem inst initiateAcc to coalescer issue (Unspecified)
system.cpu1.initToCoalesceLatency::samples            0                       # Ticks from vmem inst initiateAcc to coalescer issue (Unspecified)
system.cpu1.initToCoalesceLatency::mean           nan                       # Ticks from vmem inst initiateAcc to coalescer issue (Unspecified)
system.cpu1.initToCoalesceLatency::stdev          nan                       # Ticks from vmem inst initiateAcc to coalescer issue (Unspecified)
system.cpu1.initToCoalesceLatency::underflows            0                       # Ticks from vmem inst initiateAcc to coalescer issue (Unspecified)
system.cpu1.initToCoalesceLatency        |           0                       |           0                       |           0                       |           0                       |           0                       |           0                       |           0                       |           0                       |           0                       |           0                       |           0                       |           0                       |           0                       |           0                       |           0                       |           0                       |           0                       |           0                       |           0                       |           0                       |           0                       |           0                       |           0                       |           0                       |           0                       |           0                       |           0                       |           0                       |           0                       |           0                       |           0                       |           0                       |           0                       |           0                       |           0                       |           0                       |           0                       |           0                       |           0                       |           0                       |           0                       |           0                       |           0                       |           0                       |           0                       |           0                       |           0                       |           0                       |           0                       |           0                       |           0                       |           0                       |           0                       |           0                       |           0                       |           0                       |           0                       |           0                       |           0                       |           0                       |           0                       |           0                       |           0                       |           0                       |           0                       |           0                       |           0                       |           0                       |           0                       |           0                       |           0                       |           0                       |           0                       |           0                       |           0                       |           0                       |           0                       |           0                       |           0                       |           0                       |           0                       |           0                       |           0                       |           0                       |           0                       |           0                       |           0                       |           0                       |           0                       |           0                       |           0                       |           0                       |           0                       |           0                       |           0                       |           0                       |           0                       |           0                       |           0                       |           0                       |           0                       |           0                       |           0                       |           0                       |           0                       |           0                       |           0                       |           0                       |           0                       |           0                       |           0                       |           0                       |           0                       |           0                       |           0                       |           0                       |           0                       |           0                       |           0                       |           0                       |           0                       |           0                       |           0                       |           0                       |           0                       |           0                       |           0                       |           0                       |           0                       |           0                       |           0                       |           0                       |           0                       |           0                       |           0                       |           0                       |           0                       |           0                       |           0                       |           0                       |           0                       |           0                       |           0                       |           0                       |           0                       |           0                       |           0                       |           0                       |           0                       |           0                       |           0                       |           0                       |           0                       |           0                       |           0                       |           0                       |           0                       |           0                       |           0                       |           0                       # Ticks from vmem inst initiateAcc to coalescer issue (Unspecified)
system.cpu1.initToCoalesceLatency::overflows            0                       # Ticks from vmem inst initiateAcc to coalescer issue (Unspecified)
system.cpu1.initToCoalesceLatency::min_value            0                       # Ticks from vmem inst initiateAcc to coalescer issue (Unspecified)
system.cpu1.initToCoalesceLatency::max_value            0                       # Ticks from vmem inst initiateAcc to coalescer issue (Unspecified)
system.cpu1.initToCoalesceLatency::total            0                       # Ticks from vmem inst initiateAcc to coalescer issue (Unspecified)
system.cpu1.rubyNetworkLatency::bucket_size        10000                       # Ticks from coalescer issue to coalescer hit callback (Unspecified)
system.cpu1.rubyNetworkLatency::min_bucket            0                       # Ticks from coalescer issue to coalescer hit callback (Unspecified)
system.cpu1.rubyNetworkLatency::max_bucket      1599999                       # Ticks from coalescer issue to coalescer hit callback (Unspecified)
system.cpu1.rubyNetworkLatency::samples             0                       # Ticks from coalescer issue to coalescer hit callback (Unspecified)
system.cpu1.rubyNetworkLatency::mean              nan                       # Ticks from coalescer issue to coalescer hit callback (Unspecified)
system.cpu1.rubyNetworkLatency::stdev             nan                       # Ticks from coalescer issue to coalescer hit callback (Unspecified)
system.cpu1.rubyNetworkLatency::underflows            0                       # Ticks from coalescer issue to coalescer hit callback (Unspecified)
system.cpu1.rubyNetworkLatency           |           0                       |           0                       |           0                       |           0                       |           0                       |           0                       |           0                       |           0                       |           0                       |           0                       |           0                       |           0                       |           0                       |           0                       |           0                       |           0                       |           0                       |           0                       |           0                       |           0                       |           0                       |           0                       |           0                       |           0                       |           0                       |           0                       |           0                       |           0                       |           0                       |           0                       |           0                       |           0                       |           0                       |           0                       |           0                       |           0                       |           0                       |           0                       |           0                       |           0                       |           0                       |           0                       |           0                       |           0                       |           0                       |           0                       |           0                       |           0                       |           0                       |           0                       |           0                       |           0                       |           0                       |           0                       |           0                       |           0                       |           0                       |           0                       |           0                       |           0                       |           0                       |           0                       |           0                       |           0                       |           0                       |           0                       |           0                       |           0                       |           0                       |           0                       |           0                       |           0                       |           0                       |           0                       |           0                       |           0                       |           0                       |           0                       |           0                       |           0                       |           0                       |           0                       |           0                       |           0                       |           0                       |           0                       |           0                       |           0                       |           0                       |           0                       |           0                       |           0                       |           0                       |           0                       |           0                       |           0                       |           0                       |           0                       |           0                       |           0                       |           0                       |           0                       |           0                       |           0                       |           0                       |           0                       |           0                       |           0                       |           0                       |           0                       |           0                       |           0                       |           0                       |           0                       |           0                       |           0                       |           0                       |           0                       |           0                       |           0                       |           0                       |           0                       |           0                       |           0                       |           0                       |           0                       |           0                       |           0                       |           0                       |           0                       |           0                       |           0                       |           0                       |           0                       |           0                       |           0                       |           0                       |           0                       |           0                       |           0                       |           0                       |           0                       |           0                       |           0                       |           0                       |           0                       |           0                       |           0                       |           0                       |           0                       |           0                       |           0                       |           0                       |           0                       |           0                       |           0                       |           0                       |           0                       |           0                       |           0                       # Ticks from coalescer issue to coalescer hit callback (Unspecified)
system.cpu1.rubyNetworkLatency::overflows            0                       # Ticks from coalescer issue to coalescer hit callback (Unspecified)
system.cpu1.rubyNetworkLatency::min_value            0                       # Ticks from coalescer issue to coalescer hit callback (Unspecified)
system.cpu1.rubyNetworkLatency::max_value            0                       # Ticks from coalescer issue to coalescer hit callback (Unspecified)
system.cpu1.rubyNetworkLatency::total               0                       # Ticks from coalescer issue to coalescer hit callback (Unspecified)
system.cpu1.gmEnqueueLatency::bucket_size        10000                       # Ticks from coalescer hit callback to GM pipe enqueue (Unspecified)
system.cpu1.gmEnqueueLatency::min_bucket            0                       # Ticks from coalescer hit callback to GM pipe enqueue (Unspecified)
system.cpu1.gmEnqueueLatency::max_bucket      1599999                       # Ticks from coalescer hit callback to GM pipe enqueue (Unspecified)
system.cpu1.gmEnqueueLatency::samples               0                       # Ticks from coalescer hit callback to GM pipe enqueue (Unspecified)
system.cpu1.gmEnqueueLatency::mean                nan                       # Ticks from coalescer hit callback to GM pipe enqueue (Unspecified)
system.cpu1.gmEnqueueLatency::stdev               nan                       # Ticks from coalescer hit callback to GM pipe enqueue (Unspecified)
system.cpu1.gmEnqueueLatency::underflows            0                       # Ticks from coalescer hit callback to GM pipe enqueue (Unspecified)
system.cpu1.gmEnqueueLatency             |           0                       |           0                       |           0                       |           0                       |           0                       |           0                       |           0                       |           0                       |           0                       |           0                       |           0                       |           0                       |           0                       |           0                       |           0                       |           0                       |           0                       |           0                       |           0                       |           0                       |           0                       |           0                       |           0                       |           0                       |           0                       |           0                       |           0                       |           0                       |           0                       |           0                       |           0                       |           0                       |           0                       |           0                       |           0                       |           0                       |           0                       |           0                       |           0                       |           0                       |           0                       |           0                       |           0                       |           0                       |           0                       |           0                       |           0                       |           0                       |           0                       |           0                       |           0                       |           0                       |           0                       |           0                       |           0                       |           0                       |           0                       |           0                       |           0                       |           0                       |           0                       |           0                       |           0                       |           0                       |           0                       |           0                       |           0                       |           0                       |           0                       |           0                       |           0                       |           0                       |           0                       |           0                       |           0                       |           0                       |           0                       |           0                       |           0                       |           0                       |           0                       |           0                       |           0                       |           0                       |           0                       |           0                       |           0                       |           0                       |           0                       |           0                       |           0                       |           0                       |           0                       |           0                       |           0                       |           0                       |           0                       |           0                       |           0                       |           0                       |           0                       |           0                       |           0                       |           0                       |           0                       |           0                       |           0                       |           0                       |           0                       |           0                       |           0                       |           0                       |           0                       |           0                       |           0                       |           0                       |           0                       |           0                       |           0                       |           0                       |           0                       |           0                       |           0                       |           0                       |           0                       |           0                       |           0                       |           0                       |           0                       |           0                       |           0                       |           0                       |           0                       |           0                       |           0                       |           0                       |           0                       |           0                       |           0                       |           0                       |           0                       |           0                       |           0                       |           0                       |           0                       |           0                       |           0                       |           0                       |           0                       |           0                       |           0                       |           0                       |           0                       |           0                       |           0                       |           0                       |           0                       |           0                       |           0                       |           0                       # Ticks from coalescer hit callback to GM pipe enqueue (Unspecified)
system.cpu1.gmEnqueueLatency::overflows             0                       # Ticks from coalescer hit callback to GM pipe enqueue (Unspecified)
system.cpu1.gmEnqueueLatency::min_value             0                       # Ticks from coalescer hit callback to GM pipe enqueue (Unspecified)
system.cpu1.gmEnqueueLatency::max_value             0                       # Ticks from coalescer hit callback to GM pipe enqueue (Unspecified)
system.cpu1.gmEnqueueLatency::total                 0                       # Ticks from coalescer hit callback to GM pipe enqueue (Unspecified)
system.cpu1.gmToCompleteLatency::bucket_size        10000                       # Ticks queued in GM pipes ordered response buffer (Unspecified)
system.cpu1.gmToCompleteLatency::min_bucket            0                       # Ticks queued in GM pipes ordered response buffer (Unspecified)
system.cpu1.gmToCompleteLatency::max_bucket      1599999                       # Ticks queued in GM pipes ordered response buffer (Unspecified)
system.cpu1.gmToCompleteLatency::samples            0                       # Ticks queued in GM pipes ordered response buffer (Unspecified)
system.cpu1.gmToCompleteLatency::mean             nan                       # Ticks queued in GM pipes ordered response buffer (Unspecified)
system.cpu1.gmToCompleteLatency::stdev            nan                       # Ticks queued in GM pipes ordered response buffer (Unspecified)
system.cpu1.gmToCompleteLatency::underflows            0                       # Ticks queued in GM pipes ordered response buffer (Unspecified)
system.cpu1.gmToCompleteLatency          |           0                       |           0                       |           0                       |           0                       |           0                       |           0                       |           0                       |           0                       |           0                       |           0                       |           0                       |           0                       |           0                       |           0                       |           0                       |           0                       |           0                       |           0                       |           0                       |           0                       |           0                       |           0                       |           0                       |           0                       |           0                       |           0                       |           0                       |           0                       |           0                       |           0                       |           0                       |           0                       |           0                       |           0                       |           0                       |           0                       |           0                       |           0                       |           0                       |           0                       |           0                       |           0                       |           0                       |           0                       |           0                       |           0                       |           0                       |           0                       |           0                       |           0                       |           0                       |           0                       |           0                       |           0                       |           0                       |           0                       |           0                       |           0                       |           0                       |           0                       |           0                       |           0                       |           0                       |           0                       |           0                       |           0                       |           0                       |           0                       |           0                       |           0                       |           0                       |           0                       |           0                       |           0                       |           0                       |           0                       |           0                       |           0                       |           0                       |           0                       |           0                       |           0                       |           0                       |           0                       |           0                       |           0                       |           0                       |           0                       |           0                       |           0                       |           0                       |           0                       |           0                       |           0                       |           0                       |           0                       |           0                       |           0                       |           0                       |           0                       |           0                       |           0                       |           0                       |           0                       |           0                       |           0                       |           0                       |           0                       |           0                       |           0                       |           0                       |           0                       |           0                       |           0                       |           0                       |           0                       |           0                       |           0                       |           0                       |           0                       |           0                       |           0                       |           0                       |           0                       |           0                       |           0                       |           0                       |           0                       |           0                       |           0                       |           0                       |           0                       |           0                       |           0                       |           0                       |           0                       |           0                       |           0                       |           0                       |           0                       |           0                       |           0                       |           0                       |           0                       |           0                       |           0                       |           0                       |           0                       |           0                       |           0                       |           0                       |           0                       |           0                       |           0                       |           0                       |           0                       |           0                       |           0                       |           0                       |           0                       # Ticks queued in GM pipes ordered response buffer (Unspecified)
system.cpu1.gmToCompleteLatency::overflows            0                       # Ticks queued in GM pipes ordered response buffer (Unspecified)
system.cpu1.gmToCompleteLatency::min_value            0                       # Ticks queued in GM pipes ordered response buffer (Unspecified)
system.cpu1.gmToCompleteLatency::max_value            0                       # Ticks queued in GM pipes ordered response buffer (Unspecified)
system.cpu1.gmToCompleteLatency::total              0                       # Ticks queued in GM pipes ordered response buffer (Unspecified)
system.cpu1.coalsrLineAddresses::bucket_size            1                       # Number of cache lines for coalesced request (Unspecified)
system.cpu1.coalsrLineAddresses::min_bucket            0                       # Number of cache lines for coalesced request (Unspecified)
system.cpu1.coalsrLineAddresses::max_bucket           20                       # Number of cache lines for coalesced request (Unspecified)
system.cpu1.coalsrLineAddresses::samples        18532                       # Number of cache lines for coalesced request (Unspecified)
system.cpu1.coalsrLineAddresses::mean               0                       # Number of cache lines for coalesced request (Unspecified)
system.cpu1.coalsrLineAddresses::stdev              0                       # Number of cache lines for coalesced request (Unspecified)
system.cpu1.coalsrLineAddresses::underflows            0      0.00%      0.00% # Number of cache lines for coalesced request (Unspecified)
system.cpu1.coalsrLineAddresses          |       18532    100.00%    100.00% |           0      0.00%    100.00% |           0      0.00%    100.00% |           0      0.00%    100.00% |           0      0.00%    100.00% |           0      0.00%    100.00% |           0      0.00%    100.00% |           0      0.00%    100.00% |           0      0.00%    100.00% |           0      0.00%    100.00% |           0      0.00%    100.00% |           0      0.00%    100.00% |           0      0.00%    100.00% |           0      0.00%    100.00% |           0      0.00%    100.00% |           0      0.00%    100.00% |           0      0.00%    100.00% |           0      0.00%    100.00% |           0      0.00%    100.00% |           0      0.00%    100.00% |           0      0.00%    100.00% # Number of cache lines for coalesced request (Unspecified)
system.cpu1.coalsrLineAddresses::overflows            0      0.00%    100.00% # Number of cache lines for coalesced request (Unspecified)
system.cpu1.coalsrLineAddresses::min_value            0                       # Number of cache lines for coalesced request (Unspecified)
system.cpu1.coalsrLineAddresses::max_value            0                       # Number of cache lines for coalesced request (Unspecified)
system.cpu1.coalsrLineAddresses::total          18532                       # Number of cache lines for coalesced request (Unspecified)
system.cpu1.shaderActiveTicks              1701833996                       # Total ticks that any CU attached to this shader is active (Unspecified)
system.cpu1.vectorInstSrcOperand::0             63618                       # vector instruction source operand distribution (Unspecified)
system.cpu1.vectorInstSrcOperand::1             86851                       # vector instruction source operand distribution (Unspecified)
system.cpu1.vectorInstSrcOperand::2              9348                       # vector instruction source operand distribution (Unspecified)
system.cpu1.vectorInstSrcOperand::3                 4                       # vector instruction source operand distribution (Unspecified)
system.cpu1.vectorInstDstOperand::0             76789                       # vector instruction destination operand distribution (Unspecified)
system.cpu1.vectorInstDstOperand::1             83032                       # vector instruction destination operand distribution (Unspecified)
system.cpu1.vectorInstDstOperand::2                 0                       # vector instruction destination operand distribution (Unspecified)
system.cpu1.vectorInstDstOperand::3                 0                       # vector instruction destination operand distribution (Unspecified)
system.cpu1.CUs0.vALUInsts                      21972                       # Number of vector ALU insts issued. (Unspecified)
system.cpu1.CUs0.vALUInstsPerWF             68.024768                       # The avg. number of vector ALU insts issued per-wavefront. (Unspecified)
system.cpu1.CUs0.sALUInsts                       2543                       # Number of scalar ALU insts issued. (Unspecified)
system.cpu1.CUs0.sALUInstsPerWF              7.873065                       # The avg. number of scalar ALU insts issued per-wavefront. (Unspecified)
system.cpu1.CUs0.instCyclesVALU                 21972                       # Number of cycles needed to execute VALU insts. (Unspecified)
system.cpu1.CUs0.instCyclesSALU                  2543                       # Number of cycles needed to execute SALU insts. (Unspecified)
system.cpu1.CUs0.threadCyclesVALU             1406208                       # Number of thread cycles used to execute vector ALU ops. Similar to instCyclesVALU but multiplied by the number of active threads. (Unspecified)
system.cpu1.CUs0.vALUUtilization                  100                       # Percentage of active vector ALU threads in a wave. (Unspecified)
system.cpu1.CUs0.ldsNoFlatInsts                    16                       # Number of LDS insts issued, not including FLAT accesses that resolve to LDS. (Unspecified)
system.cpu1.CUs0.ldsNoFlatInstsPerWF         0.049536                       # The avg. number of LDS insts (not including FLAT accesses that resolve to LDS) per-wavefront. (Unspecified)
system.cpu1.CUs0.flatVMemInsts                   4624                       # The number of FLAT insts that resolve to vmem issued. (Unspecified)
system.cpu1.CUs0.flatVMemInstsPerWF         14.315789                       # The average number of FLAT insts that resolve to vmem issued per-wavefront. (Unspecified)
system.cpu1.CUs0.flatLDSInsts                       0                       # The number of FLAT insts that resolve to LDS issued. (Unspecified)
system.cpu1.CUs0.flatLDSInstsPerWF                  0                       # The average number of FLAT insts that resolve to LDS issued per-wavefront. (Unspecified)
system.cpu1.CUs0.vectorMemWrites                   16                       # Number of vector mem write insts (excluding FLAT insts). (Unspecified)
system.cpu1.CUs0.vectorMemWritesPerWF        0.049536                       # The average number of vector mem write insts (excluding FLAT insts) per-wavefront. (Unspecified)
system.cpu1.CUs0.vectorMemReads                    20                       # Number of vector mem read insts (excluding FLAT insts). (Unspecified)
system.cpu1.CUs0.vectorMemReadsPerWF         0.061920                       # The avg. number of vector mem read insts (excluding FLAT insts) per-wavefront. (Unspecified)
system.cpu1.CUs0.scalarMemWrites                    0                       # Number of scalar mem write insts. (Unspecified)
system.cpu1.CUs0.scalarMemWritesPerWF               0                       # The average number of scalar mem write insts per-wavefront. (Unspecified)
system.cpu1.CUs0.scalarMemReads                  1926                       # Number of scalar mem read insts. (Unspecified)
system.cpu1.CUs0.scalarMemReadsPerWF         5.962848                       # The average number of scalar mem read insts per-wavefront. (Unspecified)
system.cpu1.CUs0.vectorMemReadsPerKiloInst     0.499538                       # Number of vector mem reads per kilo-instruction (Unspecified)
system.cpu1.CUs0.vectorMemWritesPerKiloInst     0.399630                       # Number of vector mem writes per kilo-instruction (Unspecified)
system.cpu1.CUs0.vectorMemInstsPerKiloInst     0.899168                       # Number of vector mem insts per kilo-instruction (Unspecified)
system.cpu1.CUs0.scalarMemReadsPerKiloInst    48.105502                       # Number of scalar mem reads per kilo-instruction (Unspecified)
system.cpu1.CUs0.scalarMemWritesPerKiloInst            0                       # Number of scalar mem writes per kilo-instruction (Unspecified)
system.cpu1.CUs0.scalarMemInstsPerKiloInst    48.105502                       # Number of scalar mem insts per kilo-instruction (Unspecified)
system.cpu1.CUs0.instCyclesVMemPerSimd::0         1750                       # Number of cycles to send address, command, data from VRF to vector memory unit, per SIMD (Unspecified)
system.cpu1.CUs0.instCyclesVMemPerSimd::1         1747                       # Number of cycles to send address, command, data from VRF to vector memory unit, per SIMD (Unspecified)
system.cpu1.CUs0.instCyclesVMemPerSimd::2         1747                       # Number of cycles to send address, command, data from VRF to vector memory unit, per SIMD (Unspecified)
system.cpu1.CUs0.instCyclesVMemPerSimd::3         1744                       # Number of cycles to send address, command, data from VRF to vector memory unit, per SIMD (Unspecified)
system.cpu1.CUs0.instCyclesScMemPerSimd::0          465                       # Number of cycles to send address, command, data from SRF to scalar memory unit, per SIMD (Unspecified)
system.cpu1.CUs0.instCyclesScMemPerSimd::1          465                       # Number of cycles to send address, command, data from SRF to scalar memory unit, per SIMD (Unspecified)
system.cpu1.CUs0.instCyclesScMemPerSimd::2          465                       # Number of cycles to send address, command, data from SRF to scalar memory unit, per SIMD (Unspecified)
system.cpu1.CUs0.instCyclesScMemPerSimd::3          531                       # Number of cycles to send address, command, data from SRF to scalar memory unit, per SIMD (Unspecified)
system.cpu1.CUs0.instCyclesLdsPerSimd::0            6                       # Number of cycles to send address, command, data from VRF to LDS unit, per SIMD (Unspecified)
system.cpu1.CUs0.instCyclesLdsPerSimd::1            6                       # Number of cycles to send address, command, data from VRF to LDS unit, per SIMD (Unspecified)
system.cpu1.CUs0.instCyclesLdsPerSimd::2            6                       # Number of cycles to send address, command, data from VRF to LDS unit, per SIMD (Unspecified)
system.cpu1.CUs0.instCyclesLdsPerSimd::3            6                       # Number of cycles to send address, command, data from VRF to LDS unit, per SIMD (Unspecified)
system.cpu1.CUs0.globalReads                     2332                       # Number of reads to the global segment (Unspecified)
system.cpu1.CUs0.globalWrites                    2328                       # Number of writes to the global segment (Unspecified)
system.cpu1.CUs0.globalMemInsts                  4660                       # Number of memory instructions sent to the global segment (Unspecified)
[...]
system.Shader.cacheBlockRoundTrip8::overflows            0                       # Coalsr-to-coalsr time for the Nth cache block in an inst (Unspecified)
system.Shader.cacheBlockRoundTrip8::min_value            0                       # Coalsr-to-coalsr time for the Nth cache block in an inst (Unspecified)
system.Shader.cacheBlockRoundTrip8::max_value            0                       # Coalsr-to-coalsr time for the Nth cache block in an inst (Unspecified)
system.Shader.cacheBlockRoundTrip8::total            0                       # Coalsr-to-coalsr time for the Nth cache block in an inst (Unspecified)
system.Shader.cacheBlockRoundTrip9::bucket_size        10000                       # Coalsr-to-coalsr time for the Nth cache block in an inst (Unspecified)
system.Shader.cacheBlockRoundTrip9::min_bucket            0                       # Coalsr-to-coalsr time for the Nth cache block in an inst (Unspecified)
system.Shader.cacheBlockRoundTrip9::max_bucket      1599999                       # Coalsr-to-coalsr time for the Nth cache block in an inst (Unspecified)
system.Shader.cacheBlockRoundTrip9::samples            0                       # Coalsr-to-coalsr time for the Nth cache block in an inst (Unspecified)
system.Shader.cacheBlockRoundTrip9::mean          nan                       # Coalsr-to-coalsr time for the Nth cache block in an inst (Unspecified)
system.Shader.cacheBlockRoundTrip9::stdev          nan                       # Coalsr-to-coalsr time for the Nth cache block in an inst (Unspecified)
system.Shader.cacheBlockRoundTrip9::underflows            0                       # Coalsr-to-coalsr time for the Nth cache block in an inst (Unspecified)
system.Shader.cacheBlockRoundTrip9       |           0                       |           0                       |           0                       |           0                       |           0                       |           0                       |           0                       |           0                       |           0                       |           0                       |           0                       |           0                       |           0                       |           0                       |           0                       |           0                       |           0                       |           0                       |           0                       |           0                       |           0                       |           0                       |           0                       |           0                       |           0                       |           0                       |           0                       |           0                       |           0                       |           0                       |           0                       |           0                       |           0                       |           0                       |           0                       |           0                       |           0                       |           0                       |           0                       |           0                       |           0                       |           0                       |           0                       |           0                       |           0                       |           0                       |           0                       |           0                       |           0                       |           0                       |           0                       |           0                       |           0                       |           0                       |           0                       |           0                       |           0                       |           0                       |           0                       |           0                       |           0                       |           0                       |           0                       |           0                       |           0                       |           0                       |           0                       |           0                       |           0                       |           0                       |           0                       |           0                       |           0                       |           0                       |           0                       |           0                       |           0                       |           0                       |           0                       |           0                       |           0                       |           0                       |           0                       |           0                       |           0                       |           0                       |           0                       |           0                       |           0                       |           0                       |           0                       |           0                       |           0                       |           0                       |           0                       |           0                       |           0                       |           0                       |           0                       |           0                       |           0                       |           0                       |           0                       |           0                       |           0                       |           0                       |           0                       |           0                       |           0                       |           0                       |           0                       |           0                       |           0                       |           0                       |           0                       |           0                       |           0                       |           0                       |           0                       |           0                       |           0                       |           0                       |           0                       |           0                       |           0                       |           0                       |           0                       |           0                       |           0                       |           0                       |           0                       |           0                       |           0                       |           0                       |           0                       |           0                       |           0                       |           0                       |           0                       |           0                       |           0                       |           0                       |           0                       |           0                       |           0                       |           0                       |           0                       |           0                       |           0                       |           0                       |           0                       |           0                       |           0                       |           0                       |           0                       |           0                       |           0                       |           0                       |           0                       |           0                       # Coalsr-to-coalsr time for the Nth cache block in an inst (Unspecified)
system.Shader.cacheBlockRoundTrip9::overflows            0                       # Coalsr-to-coalsr time for the Nth cache block in an inst (Unspecified)
system.Shader.cacheBlockRoundTrip9::min_value            0                       # Coalsr-to-coalsr time for the Nth cache block in an inst (Unspecified)
system.Shader.cacheBlockRoundTrip9::max_value            0                       # Coalsr-to-coalsr time for the Nth cache block in an inst (Unspecified)
system.Shader.cacheBlockRoundTrip9::total            0                       # Coalsr-to-coalsr time for the Nth cache block in an inst (Unspecified)
system.l1_coalescer0.coalesced_accesses          4633                       # Number of coalesced TLB accesses (Unspecified)
system.l1_coalescer0.latency              1235.793207                       # Avg. latency over all incoming pkts (Unspecified)
system.l1_coalescer0.local_cycles           365683568                       # Number of cycles spent in queue for all incoming reqs (Unspecified)
system.l1_coalescer0.local_latency         593.568281                       # Avg. latency over all incoming pkts (Unspecified)
system.l1_coalescer0.local_queuing_cycles    175642790                       # Number of cycles spent in queue for all incoming reqs (Unspecified)
system.l1_coalescer0.queuing_cycles         175642790                       # Number of cycles spent in queue (Unspecified)
system.l1_coalescer0.uncoalesced_accesses       295910                       # Number of uncoalesced TLB accesses (Unspecified)
system.l1_coalescer1.coalesced_accesses          4622                       # Number of coalesced TLB accesses (Unspecified)
system.l1_coalescer1.latency              1243.615967                       # Avg. latency over all incoming pkts (Unspecified)
system.l1_coalescer1.local_cycles           367871552                       # Number of cycles spent in queue for all incoming reqs (Unspecified)
system.l1_coalescer1.local_latency         605.012549                       # Avg. latency over all incoming pkts (Unspecified)
system.l1_coalescer1.local_queuing_cycles    178967552                       # Number of cycles spent in queue for all incoming reqs (Unspecified)
system.l1_coalescer1.queuing_cycles         178967552                       # Number of cycles spent in queue (Unspecified)
system.l1_coalescer1.uncoalesced_accesses       295808                       # Number of uncoalesced TLB accesses (Unspecified)
system.l1_coalescer2.coalesced_accesses          4626                       # Number of coalesced TLB accesses (Unspecified)
system.l1_coalescer2.latency              1230.565576                       # Avg. latency over all incoming pkts (Unspecified)
system.l1_coalescer2.local_cycles           364276944                       # Number of cycles spent in queue for all incoming reqs (Unspecified)
system.l1_coalescer2.local_latency         522.389617                       # Avg. latency over all incoming pkts (Unspecified)
system.l1_coalescer2.local_queuing_cycles    154639864                       # Number of cycles spent in queue for all incoming reqs (Unspecified)
system.l1_coalescer2.queuing_cycles         154639864                       # Number of cycles spent in queue (Unspecified)
system.l1_coalescer2.uncoalesced_accesses       296024                       # Number of uncoalesced TLB accesses (Unspecified)
system.l1_coalescer3.coalesced_accesses          4624                       # Number of coalesced TLB accesses (Unspecified)
system.l1_coalescer3.latency              1261.839973                       # Avg. latency over all incoming pkts (Unspecified)
system.l1_coalescer3.local_cycles           373393590                       # Number of cycles spent in queue for all incoming reqs (Unspecified)
system.l1_coalescer3.local_latency         672.567966                       # Avg. latency over all incoming pkts (Unspecified)
system.l1_coalescer3.local_queuing_cycles    199020932                       # Number of cycles spent in queue for all incoming reqs (Unspecified)
system.l1_coalescer3.queuing_cycles         199020932                       # Number of cycles spent in queue (Unspecified)
system.l1_coalescer3.uncoalesced_accesses       295912                       # Number of uncoalesced TLB accesses (Unspecified)
system.l2_coalescer.coalesced_accesses           5893                       # Number of coalesced TLB accesses (Unspecified)
system.l2_coalescer.latency               2009.691931                       # Avg. latency over all incoming pkts (Unspecified)
system.l2_coalescer.local_cycles             11905415                       # Number of cycles spent in queue for all incoming reqs (Unspecified)
system.l2_coalescer.local_latency          911.302498                       # Avg. latency over all incoming pkts (Unspecified)
system.l2_coalescer.local_queuing_cycles      5398556                       # Number of cycles spent in queue for all incoming reqs (Unspecified)
system.l2_coalescer.queuing_cycles          345507181                       # Number of cycles spent in queue (Unspecified)
system.l2_coalescer.uncoalesced_accesses         5924                       # Number of uncoalesced TLB accesses (Unspecified)
system.l3_coalescer.coalesced_accesses           2809                       # Number of coalesced TLB accesses (Unspecified)
system.l3_coalescer.latency               2162.831613                       # Avg. latency over all incoming pkts (Unspecified)
system.l3_coalescer.local_cycles              6075394                       # Number of cycles spent in queue for all incoming reqs (Unspecified)
system.l3_coalescer.local_latency                   1                       # Avg. latency over all incoming pkts (Unspecified)
system.l3_coalescer.local_queuing_cycles         2809                       # Number of cycles spent in queue for all incoming reqs (Unspecified)
system.l3_coalescer.queuing_cycles             180141                       # Number of cycles spent in queue (Unspecified)
system.l3_coalescer.uncoalesced_accesses         2809                       # Number of uncoalesced TLB accesses (Unspecified)
system.scalar_coalescer.coalesced_accesses         7562                       # Number of coalesced TLB accesses (Unspecified)
system.scalar_coalescer.latency             20.552697                       # Avg. latency over all incoming pkts (Unspecified)
system.scalar_coalescer.local_cycles           166148                       # Number of cycles spent in queue for all incoming reqs (Unspecified)
system.scalar_coalescer.local_latency       18.757917                       # Avg. latency over all incoming pkts (Unspecified)
system.scalar_coalescer.local_queuing_cycles       151639                       # Number of cycles spent in queue for all incoming reqs (Unspecified)
system.scalar_coalescer.queuing_cycles         151639                       # Number of cycles spent in queue (Unspecified)
system.scalar_coalescer.uncoalesced_accesses         8084                       # Number of uncoalesced TLB accesses (Unspecified)
system.sqc_coalescer.coalesced_accesses         28998                       # Number of coalesced TLB accesses (Unspecified)
system.sqc_coalescer.latency                 3.123401                       # Avg. latency over all incoming pkts (Unspecified)
system.sqc_coalescer.local_cycles               95929                       # Number of cycles spent in queue for all incoming reqs (Unspecified)
system.sqc_coalescer.local_latency           1.264351                       # Avg. latency over all incoming pkts (Unspecified)
system.sqc_coalescer.local_queuing_cycles        38832                       # Number of cycles spent in queue for all incoming reqs (Unspecified)
system.sqc_coalescer.queuing_cycles             38832                       # Number of cycles spent in queue (Unspecified)
system.sqc_coalescer.uncoalesced_accesses        30713                       # Number of uncoalesced TLB accesses (Unspecified)

---------- End Simulation Statistics   ----------
